Circuit: * C:\Users\famic\Documents\PIC-nixie\simulations\nixie.asc

Instance "m:m1:r": Length shorter than recommended for a level 1 MOSFET.
Instance "m:m1:r": Width narrower than recommended for a level 1 MOSFET.
Instance "m:m1:1": Width narrower than recommended for a level 3 MOSFET.
Direct Newton iteration for .op point succeeded.

Date: Fri Oct 29 21:11:43 2021
Total elapsed time: 0.222 seconds.

tnom = 27
temp = 25
method = modified trap
totiter = 10772
traniter = 10726
tranpoints = 4776
accept = 3885
rejected = 891
matrix size = 41
fillins = 24
solver = Normal
Matrix Compiler1: 4.21 KB object code size  0.7/0.4/[0.2]
Matrix Compiler2: off  [0.3]/0.5/0.4

